ROMS/TOMS Framework: September 21, 2011
===================

Copyright (c) 2002-2011 The ROMS/TOMS Group
  Licensed under a MIT/X style license
  See License_ROMS.txt

svn: $HeadURL: https://www.myroms.org/svn/src/trunk/ROMS/Version $
svn: $LastChangedBy: arango $
svn: $LastChangedRevision: 568 $
svn: $LastChangedDate: 2011-09-21 15:57:11 -0500 (Wed, 21 Sep 2011) $
